Version 4
SHEET 1 892 4660
WIRE 448 48 208 48
WIRE 208 112 208 48
WIRE 160 192 -48 192
WIRE -48 224 -48 192
WIRE 448 224 448 48
WIRE -48 336 -48 304
WIRE 208 336 208 208
WIRE 448 336 448 304
FLAG -48 336 0
FLAG 448 336 0
FLAG 208 336 0
SYMBOL nmos 160 112 R0
SYMATTR InstName M1
SYMATTR Value CMOSN
SYMBOL voltage -48 208 R0
SYMATTR InstName V1
SYMATTR Value 1.6V
SYMBOL voltage 448 208 R0
SYMATTR InstName V2
SYMATTR Value 3.3V
TEXT 112 392 Left 2 !.dc V1 0.1 3.3 0.01
TEXT -496 472 Left 2 !.model cmosn nmos ( level=49\n+ version=3.1               binunit=1.0000e+00        mobmod=1\n+ capmod=2                  nqsmod=0.0000e+00         \n+ tox=7.7e-9                                          toxm=4.2000e-09\n+ xj=1e-7                   nch=2.2e17                rsh=80\n+ ngate=1.0000e+23          vth0=0.4739035\n+ k1=0.5980711              k2=2.129508e-4            k3=89.1316051\n+ k3b=-8.9451617            w0=3.267588e-5            nlx=2.389619e-7\n+ dvt0=3.090362             dvt1=0.7427518            dvt2=-0.1500347\n+ dvt0w=0                   dvt1w=0                   dvt2w=0\n+ lint=0                    wint=1.45681e-7           dwg=-5.436366e-9\n+ dwb=4.655955e-9           u0=385.646076\n+ ua=-4.6434e-10            ub=2.099304e-18           uc=3.944494e-11\n+ vsat=1.584114e5           a0=1.1776486              ags=0.1836559\n+ b0=7.523723e-7            b1=5e-6                   keta=2.991409e-3\n+ a1=0                      a2=0.4259175              voff=-0.0938652\n+ nfactor=1.3714105         cit=0                     cdsc=2.4e-4\n+ cdscd=0                   cdscb=0                   eta0=0.9911705\n+ etab=0.0151948            dsub=0.8661705            pclm=1.6432607\n+ pdiblc1=1.509754e-3       pdiblc2=1.479156e-3       pdiblcb=0.1\n+ drout=0                   pscbe1=7.204688E8         pscbe2=6.67778e-4\n+ pvag=0                    rdsw=1.060209e3           prwg=-0.0949099\n+ prwb=-0.0949472           wr=1                      alpha0=0.0000e+00\n+ alpha1=0.0000e+00         beta0=3.0000e+01          xpart=0.5\n+ cgso=3.1e-10                     \n+ cgdo=3.1e-10                                        cgbo=1e-12\n+ cgsl=0.0000e+00           cgdl=0.0000e+00           ckappa=6.0000e-01\n+ cf=0                      clc=1.0000e-07            cle=6.0000e-01\n+ dlc=2.9000e-08            dwc=0.0000e+00            vfbcv=-1.0000e+00\n+ noff=1.0000e+00           voffcv=0.0000e+00         acde=1.0000e+00\n+ moin=1.5000e+01           lmin=1.8000e-07           lmax=5.0000e-05\n+ wmin=2.4000e-07           wmax=1.0000e-04           \n+ xl=-5e-8                   \n+ xw=1.5e-7                                           js=1.0000e-06\n+ jsw=7.0000e-11            cj=9.161291e-4\n+ mj=0.3472772              pb=0.8             \n+ cjsw=3.326018e-10                                   mjsw=0.1126914\n+ tnom=27                   ute=-1.5                  kt1=-0.11\n+ kt1l=0                    kt2=0.022                 ua1=4.31e-9\n+ ub1=-7.61e-18             uc1=-5.6e-11              at=3.3e4\n+ prt=0                     xti=3.0000e+00            wl=0\n+ wln=1                     ww=0                      wwn=1\n+ wwl=0                     ll=0                      lln=1\n+ lw=0                      lwn=1                     lwl=0\n+ llc=-2.1400e-15           lwc=0.0000e+00            lwlc=0.0000e+00\n+ wlc=0.0000e+00            wwc=0.0000e+00            wwlc=0.0000e+00\n+ lvth0= - 1.0000e-03                \n+ wvth0=6.027e-02                                     pvth0=-0.0227383\n+ lnlx=-2.8540e-08          wnlx=0.0000e+00           pnlx=0.0000e+00\n+ wua=-1.8800e-11           wu0=5.4000e-01\n+ pub=3.8000e-20            pw0=1.3000e-09            wrdsw=0.0000e+00\n+ weta0=0.0000e+00          wetab=0.0000e+00          leta0=1.5740e-03\n+ letab=0.0000e+00          peta0=0.0000e+00          petab=0.0000e+00\n+ wpclm=0.0000e+00          wvoff=-4.0780e-04         lvoff=-4.2080e-03\n+ pvoff=-3.7880e-04         wa0=-4.7310e-02           la0=-4.6670e-01\n+ pa0=-2.6490e-02           wags=4.2420e-03           lags=3.0280e-01\n+ pags=0.0000e+00           wketa=-1.530315e-3        lketa=-7.775726e-4\n+ pketa=0.0000e+00          wute=6.3730e-02           lute=0.0000e+00\n+ pute=0.0000e+00           wvsat=5.0660e+03          lvsat=0.0000e+00\n+ pvsat=0.0000e+00                                    lpdiblc2=-4.7520e-03\n+ wat=7.0670e+03            wprt=0.0000e+00           ldif=8.0000e-08\n+ hdif=2.6000e-07           n=1.0000e+00              pbsw=0.8\n+ cjswg=1.82e-10                                      ctp=9.1400e-04\n+ ptp=9.2400e-04            cta=9.1900e-04            pta=1.5800e-03\n+ elm=5.0000e+00            tlevc=1.0000e+00          \n+ noimod=2.0e+00                                noia=1.3182567385564e+19                        noib=144543.977074592\n+ noic=-1.24515784572817e-12    ef=0.92                                                                         em=41000000 )
