Version 4
SHEET 1 952 740
WIRE 16 32 -400 32
WIRE 112 32 16 32
WIRE 320 32 112 32
WIRE 416 32 320 32
WIRE 912 32 416 32
WIRE 16 176 16 32
WIRE 416 176 416 32
WIRE -400 192 -400 32
WIRE 112 224 112 32
WIRE 112 224 16 224
WIRE 320 224 320 32
WIRE 416 224 320 224
WIRE -32 256 -128 256
WIRE 576 256 464 256
WIRE 16 368 16 272
WIRE 416 368 416 272
WIRE 16 400 16 368
WIRE 16 400 -368 400
WIRE 416 400 416 368
WIRE 848 400 416 400
WIRE 16 416 16 400
WIRE 416 416 416 400
WIRE -368 464 -368 400
WIRE 128 464 16 464
WIRE 416 464 320 464
WIRE 848 464 848 400
WIRE -32 496 -128 496
WIRE 576 496 464 496
WIRE 16 544 16 512
WIRE 128 544 128 464
WIRE 128 544 16 544
WIRE 240 544 128 544
WIRE 320 544 320 464
WIRE 320 544 240 544
WIRE 416 544 416 512
WIRE 416 544 320 544
WIRE 240 576 240 544
WIRE 336 624 240 624
WIRE 192 656 112 656
WIRE 240 720 240 672
WIRE 240 720 -320 720
WIRE 336 720 336 624
WIRE 336 720 240 720
WIRE 912 720 336 720
FLAG -400 272 0
FLAG 240 720 0
FLAG -208 256 0
FLAG -208 496 0
FLAG 32 656 0
FLAG 656 496 0
FLAG 656 256 0
FLAG 240 544 Vx
FLAG 416 368 Io+
FLAG 16 368 Io-
FLAG -368 528 0
FLAG 848 528 0
SYMBOL voltage -400 176 R0
SYMATTR InstName V1
SYMATTR Value 3.3V
SYMBOL nmos4 -32 416 R0
WINDOW 3 46 67 Left 2
SYMATTR InstName M1
SYMATTR Value TSMC35N
SYMATTR Value2 l=0.5u w=104.2u
SYMBOL nmos4 464 416 M0
WINDOW 3 25 66 Left 2
SYMATTR InstName M2
SYMATTR Value TSMC35N
SYMATTR Value2 l=0.5u w=104.2u
SYMBOL nmos4 192 576 R0
WINDOW 3 31 66 Left 2
SYMATTR InstName M3
SYMATTR Value TSMC35N
SYMATTR Value2 l=0.5u w=23.846u
SYMBOL pmos4 -32 176 R0
SYMATTR InstName M4
SYMATTR Value TSMC35P
SYMATTR Value2 l=0.5u w=3.6u
SYMBOL pmos4 464 176 M0
SYMATTR InstName M5
SYMATTR Value TSMC35P
SYMATTR Value2 l=0.5u w=3.6u
SYMBOL voltage -112 496 R90
WINDOW 0 -32 56 VBottom 2
WINDOW 3 32 56 VTop 2
WINDOW 123 60 56 VTop 2
WINDOW 39 0 0 Left 0
SYMATTR InstName V2
SYMATTR Value SINE(1.65 10m 100Meg)
SYMBOL voltage 560 496 M90
WINDOW 0 -32 56 VBottom 2
WINDOW 3 32 56 VTop 2
WINDOW 123 0 0 Left 0
WINDOW 39 0 0 Left 0
SYMATTR InstName V3
SYMATTR Value 1.65V
SYMBOL voltage 560 256 M90
WINDOW 0 -32 56 VBottom 2
WINDOW 3 32 56 VTop 2
WINDOW 123 0 0 Left 0
WINDOW 39 0 0 Left 0
SYMATTR InstName V4
SYMATTR Value 1.65V
SYMBOL voltage -112 256 R90
WINDOW 0 -32 56 VBottom 2
WINDOW 3 32 56 VTop 2
WINDOW 123 0 0 Left 0
WINDOW 39 0 0 Left 0
SYMATTR InstName V5
SYMATTR Value 1.65V
SYMBOL voltage 128 656 R90
WINDOW 0 -32 56 VBottom 2
WINDOW 3 32 56 VTop 2
SYMATTR InstName V6
SYMATTR Value 1V
SYMBOL cap 832 464 R0
WINDOW 0 -28 11 Left 2
WINDOW 3 -99 43 Left 2
SYMATTR InstName C1
SYMATTR Value 0.945pF
SYMBOL cap -384 464 R0
WINDOW 3 35 45 Left 2
SYMATTR InstName C2
SYMATTR Value 0.945pF
TEXT -304 -8 Left 2 !.include /home/akash/.wine/dosdevices/c:/users/akash/Desktop/ActiveFiltersPractice/tsmc035.lib
TEXT 488 688 Left 2 !.tran 0 100n 0 0.01
